/*--------------------------------*- C++ -*----------------------------------*\
| =========                 |                                                 |
| \\      /  F ield         | OpenFOAM: The Open Source CFD Toolbox           |
|  \\    /   O peration     | Version:  v2412                                 |
|   \\  /    A nd           | Website:  www.openfoam.com                      |
|    \\/     M anipulation  |                                                 |
\*---------------------------------------------------------------------------*/
FoamFile
{
    version     2.0;
    format      ascii;
    class       dictionary;
    object      controlDict;
}
// * * * * * * * * * * * * * * * * * * * * * * * * * * * * * * * * * * * * * //

application     icoFoam;
startFrom       startTime;
startTime       0;
stopAt          endTime;
endTime         100;  // Increased run time for higher Re
deltaT          0.02;  // Smaller initial time step for stability
writeControl    timeStep;
writeInterval   50;  // Store fewer snapshots but run longer
purgeWrite      0;
writeFormat     ascii;
writePrecision  6;
writeCompression off;
timeFormat      general;
timePrecision   6;
runTimeModifiable true;

// Adjust time step to maintain stability
adjustTimeStep  yes;
maxCo           0.8;  // Lower maximum Courant number for better stability


// ************************************************************************* // 