FoamFile
{
    version     2.0;
    format      ascii;
    class       dictionary;
    location    "system";
    object      controlDict;
}
application     icoFoam;
startFrom       startTime;
startTime       0;
stopAt          endTime;
endTime         100.0;
deltaT          0.02;
writeControl    timeStep;
writeInterval   500;
purgeWrite      0;
writeFormat     ascii;
writePrecision  6;
writeCompression off;
timeFormat      general;
timePrecision   6;
runTimeModifiable true;


