FoamFile
{
    version     2.0;
    format      ascii;
    class       dictionary;
    location    "system";
    object      controlDict;
}
application     icoFoam;
startFrom       startTime;
startTime       0;
stopAt          endTime;
endTime         100.0;
deltaT          0.01;
writeControl    timeStep;
writeInterval   500;
purgeWrite      0;
writeFormat     ascii;
writePrecision  6;
writeCompression off;
timeFormat      general;
timePrecision   6;
runTimeModifiable true;


streamFunction1
{
    // Mandatory entries (unmodifiable)
    type            streamFunction;
    libs            (fieldFunctionObjects);

    // Optional (inherited) entries
    field           U;
    result          streamFunction1;
    region          region0;
    enabled         true;
    log             true;
    timeStart       0;
    timeEnd         0.5;
    executeControl  timeStep;
    executeInterval 1;
    writeControl    timeStep;
    writeInterval   20;
}